Version 4
SHEET 1 880 680
WIRE 352 16 336 16
WIRE 464 16 432 16
WIRE 592 32 576 32
WIRE 704 32 672 32
WIRE 240 64 224 64
WIRE 336 64 336 16
WIRE 336 64 320 64
WIRE 224 80 224 64
WIRE 336 112 336 64
WIRE 352 112 336 112
WIRE 464 128 464 16
WIRE 464 128 416 128
WIRE 480 128 464 128
WIRE 576 128 576 32
WIRE 576 128 560 128
WIRE 592 128 576 128
WIRE 112 144 80 144
WIRE 224 144 192 144
WIRE 240 144 224 144
WIRE 320 144 304 144
WIRE 352 144 320 144
WIRE 704 144 704 32
WIRE 704 144 656 144
WIRE -16 160 -16 144
WIRE -16 160 -64 160
WIRE 80 160 80 144
WIRE 320 160 320 144
WIRE 592 160 576 160
WIRE -16 176 -16 160
WIRE 224 192 224 144
WIRE 288 192 224 192
WIRE 576 192 576 160
WIRE 224 208 224 192
WIRE 320 256 320 240
WIRE 224 288 224 272
WIRE 288 288 288 192
WIRE 336 288 288 288
WIRE 464 288 464 128
WIRE 464 288 416 288
FLAG 224 80 0
FLAG -64 160 0
FLAG -16 64 V+
FLAG -16 256 V-
FLAG 384 96 V+
FLAG 384 160 V-
FLAG 80 240 0
FLAG 320 256 0
FLAG 224 288 0
FLAG 624 112 V+
FLAG 624 176 V-
FLAG 576 192 0
SYMBOL OpAmps\\OP07 384 64 R0
SYMATTR InstName U1
SYMBOL res 208 128 R90
WINDOW 0 0 56 VBottom 2
WINDOW 3 32 56 VTop 2
SYMATTR InstName R2
SYMATTR Value 2710
SYMBOL res 448 0 R90
WINDOW 0 0 56 VBottom 2
WINDOW 3 32 56 VTop 2
SYMATTR InstName R3
SYMATTR Value 3.3k
SYMBOL res 336 48 R90
WINDOW 0 0 56 VBottom 2
WINDOW 3 32 56 VTop 2
SYMATTR InstName R4
SYMATTR Value 1.47k
SYMBOL voltage -16 160 R0
WINDOW 123 0 0 Left 0
WINDOW 39 0 0 Left 0
SYMATTR InstName V1
SYMATTR Value 15
SYMBOL voltage -16 48 R0
WINDOW 123 0 0 Left 0
WINDOW 39 0 0 Left 0
SYMATTR InstName V2
SYMATTR Value 15
SYMBOL voltage 80 144 R0
WINDOW 123 24 124 Left 2
WINDOW 39 0 0 Left 0
SYMATTR Value2 AC 1
SYMATTR InstName V3
SYMATTR Value SINE()
SYMBOL res 304 144 R0
SYMATTR InstName R5
SYMATTR Value 2710
SYMBOL cap 208 208 R0
SYMATTR InstName C1
SYMATTR Value 0.1µ
SYMBOL res 432 272 R90
WINDOW 0 0 56 VBottom 2
WINDOW 3 32 56 VTop 2
SYMATTR InstName R1
SYMATTR Value 2.2k
SYMBOL cap 304 128 R90
WINDOW 0 0 32 VBottom 2
WINDOW 3 32 32 VTop 2
SYMATTR InstName C2
SYMATTR Value 0.1µ
SYMBOL OpAmps\\OP07 624 80 R0
SYMATTR InstName U2
SYMBOL res 688 16 R90
WINDOW 0 0 56 VBottom 2
WINDOW 3 32 56 VTop 2
SYMATTR InstName R6
SYMATTR Value 820
SYMBOL res 576 112 R90
WINDOW 0 0 56 VBottom 2
WINDOW 3 32 56 VTop 2
SYMATTR InstName R7
SYMATTR Value 10k
TEXT -56 320 Left 2 !.ac dec 100 1 100k
