Version 4.1
SHEET 1 1236 800
WIRE 864 -48 832 -48
WIRE 1008 -48 944 -48
WIRE 1056 -48 1008 -48
WIRE 1168 -48 1136 -48
WIRE 416 -32 384 -32
WIRE 560 -32 496 -32
WIRE 608 -32 560 -32
WIRE 720 -32 688 -32
WIRE 832 -32 832 -48
WIRE 384 -16 384 -32
WIRE 1008 80 1008 -48
WIRE 1040 80 1008 80
WIRE 560 96 560 -32
WIRE 592 96 560 96
WIRE 1168 96 1168 -48
WIRE 1168 96 1104 96
WIRE 1200 96 1168 96
WIRE -64 112 -64 80
WIRE -64 112 -96 112
WIRE 720 112 720 -32
WIRE 720 112 656 112
WIRE 800 112 720 112
WIRE 912 112 864 112
WIRE 928 112 912 112
WIRE 1008 112 992 112
WIRE 1040 112 1008 112
WIRE 272 128 208 128
WIRE 400 128 352 128
WIRE 416 128 400 128
WIRE 560 128 496 128
WIRE 592 128 560 128
WIRE -64 144 -64 112
WIRE 1008 144 1008 112
WIRE 560 160 560 128
WIRE 912 304 912 112
WIRE 976 304 912 304
WIRE 1168 304 1168 96
WIRE 1168 304 1056 304
WIRE 400 320 400 128
WIRE 528 320 400 320
WIRE 720 320 720 112
WIRE 720 320 592 320
FLAG -96 112 0
FLAG -64 0 +V
FLAG -64 224 -V
FLAG 208 208 0
FLAG 832 -32 0
FLAG 1008 224 0
FLAG 1072 64 +V
FLAG 1072 128 -V
FLAG 384 -16 0
FLAG 560 224 0
FLAG 624 80 +V
FLAG 624 144 -V
SYMBOL Voltage -64 -16 R0
WINDOW 0 24 16 Invisible 2
WINDOW 123 0 0 Left 0
WINDOW 39 0 0 Left 0
SYMATTR InstName V1
SYMATTR Value 12
SYMBOL Voltage -64 128 R0
WINDOW 0 24 16 Invisible 2
WINDOW 123 0 0 Left 0
WINDOW 39 0 0 Left 0
SYMATTR InstName V2
SYMATTR Value 12
SYMBOL voltage 208 112 R0
WINDOW 0 24 16 Invisible 2
WINDOW 123 -92 56 Left 2
WINDOW 39 0 0 Left 0
SYMATTR InstName V3
SYMATTR Value2 AC 1
SYMATTR Value ""
SYMBOL cap 864 96 R90
WINDOW 0 0 32 VBottom 2
WINDOW 3 32 32 VTop 2
SYMATTR InstName C3
SYMATTR Value 10n
SYMBOL cap 992 96 R90
WINDOW 0 0 32 VBottom 2
WINDOW 3 32 32 VTop 2
SYMATTR InstName C4
SYMATTR Value 10n
SYMBOL OpAmps\\OP07 1072 32 R0
SYMATTR InstName U2
SYMBOL res 960 -64 R90
WINDOW 0 0 56 VBottom 2
WINDOW 3 32 56 VTop 2
SYMATTR InstName R5
SYMATTR Value 10k
SYMBOL res 1152 -64 R90
WINDOW 0 0 56 VBottom 2
WINDOW 3 32 56 VTop 2
SYMATTR InstName R6
SYMATTR Value 5.86k
SYMBOL res 1072 288 R90
WINDOW 0 0 56 VBottom 2
WINDOW 3 32 56 VTop 2
SYMATTR InstName R7
SYMATTR Value 2.84k
SYMBOL res 992 128 R0
SYMATTR InstName R8
SYMATTR Value 2.84k
SYMBOL OpAmps\\OP07 624 48 R0
SYMATTR InstName U1
SYMBOL res 512 -48 R90
WINDOW 0 0 56 VBottom 2
WINDOW 3 32 56 VTop 2
SYMATTR InstName R3
SYMATTR Value 10k
SYMBOL res 704 -48 R90
WINDOW 0 0 56 VBottom 2
WINDOW 3 32 56 VTop 2
SYMATTR InstName R4
SYMATTR Value 5.86k
SYMBOL cap 592 304 R90
WINDOW 0 0 32 VBottom 2
WINDOW 3 32 32 VTop 2
SYMATTR InstName C2
SYMATTR Value 10n
SYMBOL cap 576 224 R180
WINDOW 0 24 56 Left 2
WINDOW 3 24 8 Left 2
SYMATTR InstName C1
SYMATTR Value 10n
SYMBOL res 512 112 R90
WINDOW 0 0 56 VBottom 2
WINDOW 3 32 56 VTop 2
SYMATTR InstName R2
SYMATTR Value 1.98k
SYMBOL res 368 112 R90
WINDOW 0 0 56 VBottom 2
WINDOW 3 32 56 VTop 2
SYMATTR InstName R1
SYMATTR Value 1.98k
TEXT -96 336 Left 2 !.ac dec 1000 1 10k
