Version 4
SHEET 1 1012 680
WIRE 880 -144 752 -144
WIRE -112 -112 -224 -112
WIRE 192 -112 -32 -112
WIRE 608 -112 560 -112
WIRE 912 -112 672 -112
WIRE 144 -96 16 -96
WIRE 144 -80 144 -96
WIRE 880 -80 880 -144
WIRE 368 -64 224 -64
WIRE 752 -32 752 -144
WIRE 16 -16 16 -96
WIRE 224 0 224 -64
WIRE 256 0 224 0
WIRE 752 0 752 -32
WIRE 784 0 752 0
WIRE 16 16 16 -16
WIRE 48 16 16 16
WIRE 368 16 368 -64
WIRE 368 16 320 16
WIRE 880 16 880 0
WIRE 880 16 848 16
WIRE 912 16 912 -112
WIRE 912 16 880 16
WIRE 1008 16 912 16
WIRE 144 32 144 0
WIRE 144 32 112 32
WIRE 192 32 192 -112
WIRE 192 32 144 32
WIRE 256 32 192 32
WIRE 368 32 368 16
WIRE 416 32 368 32
WIRE 560 32 560 -112
WIRE 560 32 496 32
WIRE 640 32 560 32
WIRE 752 32 720 32
WIRE 784 32 752 32
WIRE -224 48 -224 -112
WIRE -224 48 -288 48
WIRE -192 48 -224 48
WIRE -32 48 -128 48
WIRE 48 48 -32 48
WIRE 752 144 752 32
WIRE -32 176 -32 48
FLAG -32 256 0
FLAG 752 208 0
FLAG -432 48 0
FLAG 288 128 0
FLAG 288 -96 0
FLAG 816 -96 0
FLAG 816 128 0
FLAG 80 -80 0
FLAG 80 144 0
FLAG -64 -16 0
FLAG 672 -32 0
SYMBOL cap -288 32 R90
WINDOW 0 0 32 VBottom 2
WINDOW 3 32 32 VTop 2
SYMATTR InstName C1
SYMATTR Value 2.8134n
SYMBOL res -16 -128 R90
WINDOW 0 0 56 VBottom 2
WINDOW 3 32 56 VTop 2
SYMATTR InstName R1
SYMATTR Value 10k
SYMBOL res 512 16 R90
WINDOW 0 0 56 VBottom 2
WINDOW 3 32 56 VTop 2
SYMATTR InstName R2
SYMATTR Value 10k
SYMBOL cap 672 -128 R90
WINDOW 0 0 32 VBottom 2
WINDOW 3 32 32 VTop 2
SYMATTR InstName C2
SYMATTR Value 4.0192n
SYMBOL res 736 16 R90
WINDOW 0 0 56 VBottom 2
WINDOW 3 32 56 VTop 2
SYMATTR InstName R3
SYMATTR Value 10k
SYMBOL OpAmps\\OP07 816 -48 R0
SYMATTR InstName U1
SYMBOL cap 736 144 R0
SYMATTR InstName C3
SYMATTR Value 2.0096n
SYMBOL cap -128 32 R90
WINDOW 0 0 32 VBottom 2
WINDOW 3 32 32 VTop 2
SYMATTR InstName C4
SYMATTR Value 2.8134n
SYMBOL res -48 160 R0
SYMATTR InstName R4
SYMATTR Value 20k
SYMBOL voltage -336 48 R90
WINDOW 0 -32 56 VBottom 2
WINDOW 3 32 56 VTop 2
WINDOW 123 60 56 VTop 2
WINDOW 39 0 0 Left 0
SYMATTR InstName V1
SYMATTR Value ""
SYMATTR Value2 AC 1
SYMBOL OpAmps\\OP07 288 -48 R0
SYMATTR InstName U2
SYMBOL voltage 288 0 R180
WINDOW 0 24 96 Left 2
WINDOW 3 24 16 Left 2
SYMATTR InstName V2
SYMATTR Value 5
SYMBOL voltage 816 0 R180
WINDOW 0 24 96 Left 2
WINDOW 3 24 16 Left 2
SYMATTR InstName V3
SYMATTR Value 5
SYMBOL voltage 288 32 R0
SYMATTR InstName V4
SYMATTR Value -5
SYMBOL voltage 816 32 R0
SYMATTR InstName V5
SYMATTR Value -5
SYMBOL OpAmps\\OP07 80 -32 R0
SYMATTR InstName U3
SYMBOL voltage 80 48 R0
WINDOW 123 0 0 Left 0
WINDOW 39 0 0 Left 0
SYMATTR InstName V6
SYMATTR Value -5
SYMBOL voltage 80 16 R180
WINDOW 0 24 96 Left 2
WINDOW 3 24 16 Left 2
WINDOW 123 0 0 Left 0
WINDOW 39 0 0 Left 0
SYMATTR InstName V7
SYMATTR Value 5
SYMBOL res 32 -32 R90
WINDOW 0 0 56 VBottom 2
WINDOW 3 32 56 VTop 2
SYMATTR InstName R5
SYMATTR Value 10k
SYMBOL res 128 -96 R0
SYMATTR InstName R6
SYMATTR Value 5.1k
SYMBOL res 768 -48 R90
WINDOW 0 0 56 VBottom 2
WINDOW 3 32 56 VTop 2
SYMATTR InstName R7
SYMATTR Value 10k
SYMBOL res 864 -96 R0
SYMATTR InstName R8
SYMATTR Value 5.1k
TEXT -360 280 Left 2 !.ac dec 1000 1 100k
