Version 4
SHEET 1 3988 1104
WIRE 1344 -544 1296 -544
WIRE 1456 -544 1424 -544
WIRE 1488 -544 1456 -544
WIRE 1616 -544 1568 -544
WIRE 1968 -528 1920 -528
WIRE 2080 -528 2048 -528
WIRE 2112 -528 2080 -528
WIRE 2240 -528 2192 -528
WIRE 1296 -512 1296 -544
WIRE 896 -496 896 -528
WIRE 1920 -496 1920 -528
WIRE 1232 -448 1200 -448
WIRE 1264 -448 1232 -448
WIRE 1424 -448 1344 -448
WIRE 1440 -448 1424 -448
WIRE 1456 -448 1456 -544
WIRE 1488 -448 1456 -448
WIRE 1616 -432 1616 -544
WIRE 1616 -432 1552 -432
WIRE 1744 -432 1616 -432
WIRE 1856 -432 1808 -432
WIRE 1920 -432 1856 -432
WIRE 2048 -432 1984 -432
WIRE 2080 -432 2080 -528
WIRE 2112 -432 2080 -432
WIRE 1440 -416 1440 -448
WIRE 1488 -416 1440 -416
WIRE 2240 -416 2240 -528
WIRE 2240 -416 2176 -416
WIRE 2288 -416 2240 -416
WIRE 2048 -400 2048 -432
WIRE 2112 -400 2048 -400
WIRE 896 -384 896 -416
WIRE 1024 -384 896 -384
WIRE 1424 -384 1424 -448
WIRE 896 -352 896 -384
WIRE 1024 -336 1024 -384
WIRE 1120 -336 1120 -368
WIRE 2048 -304 2048 -320
WIRE 1232 -256 1232 -448
WIRE 1360 -256 1232 -256
WIRE 1616 -256 1616 -432
WIRE 1616 -256 1424 -256
WIRE 1856 -240 1856 -432
WIRE 1968 -240 1856 -240
WIRE 2240 -240 2240 -416
WIRE 2240 -240 2048 -240
WIRE 896 -224 896 -272
FLAG 1024 -336 0
FLAG 896 -528 +V
FLAG 896 -224 -V
FLAG 1424 -320 0
FLAG 1296 -512 0
FLAG 2048 -304 0
FLAG 1920 -496 0
FLAG 1520 -464 +V
FLAG 2144 -448 +V
FLAG 1520 -400 -V
FLAG 2144 -384 -V
FLAG 1120 -336 0
SYMBOL Voltage 896 -512 R0
SYMATTR InstName V1
SYMATTR Value 15
SYMBOL Voltage 896 -368 R0
SYMATTR InstName V2
SYMATTR Value 15
SYMBOL Res 1216 -464 R90
WINDOW 0 0 56 VBottom 2
WINDOW 3 32 56 VTop 2
SYMATTR InstName R11
SYMATTR Value 820
SYMBOL Res 1360 -464 R90
WINDOW 0 0 56 VBottom 2
WINDOW 3 32 56 VTop 2
SYMATTR InstName R12
SYMATTR Value 820
SYMBOL Cap 1440 -320 R180
WINDOW 0 24 56 Left 2
WINDOW 3 24 8 Left 2
SYMATTR InstName C5
SYMATTR Value 2.2直
SYMBOL OpAmps/OP07 1520 -496 R0
SYMATTR InstName U4
SYMBOL Cap 1424 -272 R90
WINDOW 0 0 32 VBottom 2
WINDOW 3 32 32 VTop 2
SYMATTR InstName C6
SYMATTR Value 2.2直
SYMBOL Res 1440 -560 R90
WINDOW 0 0 56 VBottom 2
WINDOW 3 32 56 VTop 2
SYMATTR InstName R13
SYMATTR Value 1k
SYMBOL Res 1584 -560 R90
WINDOW 0 0 56 VBottom 2
WINDOW 3 32 56 VTop 2
SYMATTR InstName R14
SYMATTR Value 550
SYMBOL OpAmps/OP07 2144 -480 R0
SYMATTR InstName U5
SYMBOL Res 2064 -544 R90
WINDOW 0 0 56 VBottom 2
WINDOW 3 32 56 VTop 2
SYMATTR InstName R15
SYMATTR Value 1k
SYMBOL Res 2208 -544 R90
WINDOW 0 0 56 VBottom 2
WINDOW 3 32 56 VTop 2
SYMATTR InstName R16
SYMATTR Value 550
SYMBOL Res 2032 -416 R0
SYMATTR InstName R17
SYMATTR Value 750
SYMBOL Cap 1984 -448 R90
WINDOW 0 0 32 VBottom 2
WINDOW 3 32 32 VTop 2
SYMATTR InstName C7
SYMATTR Value 2.2直
SYMBOL Cap 1808 -448 R90
WINDOW 0 0 32 VBottom 2
WINDOW 3 32 32 VTop 2
SYMATTR InstName C8
SYMATTR Value 2.2直
SYMBOL Res 2064 -256 R90
WINDOW 0 0 56 VBottom 2
WINDOW 3 32 56 VTop 2
SYMATTR InstName R18
SYMATTR Value 750
SYMBOL Voltage 1120 -464 R0
SYMATTR InstName V5
SYMATTR Value ""
SYMATTR Value2 AC 1
TEXT 1064 -632 Left 2 !.ac dec 100 10 1000
