Version 4
SHEET 1 880 680
WIRE 160 0 112 0
WIRE 320 0 240 0
WIRE 112 64 112 0
WIRE 208 160 208 128
WIRE 112 176 112 64
WIRE 176 176 112 176
WIRE 320 192 320 0
WIRE 320 192 240 192
WIRE -160 208 -192 208
WIRE -48 208 -80 208
WIRE -16 208 -48 208
WIRE 80 208 48 208
WIRE 176 208 80 208
WIRE -192 224 -192 208
WIRE -48 240 -48 208
WIRE -48 240 -96 240
WIRE 208 256 208 224
WIRE -96 384 -96 240
WIRE 112 384 -96 384
WIRE 320 384 320 192
WIRE 320 384 192 384
FLAG 208 336 0
FLAG 208 48 0
FLAG 80 288 0
FLAG -48 304 0
FLAG -192 304 0
FLAG 32 64 0
SYMBOL OpAmps\\OP07 208 128 R0
SYMATTR InstName U1
SYMBOL voltage 208 240 R0
WINDOW 123 0 0 Left 0
WINDOW 39 0 0 Left 0
SYMATTR InstName V1
SYMATTR Value -5
SYMBOL voltage 208 144 R180
WINDOW 0 24 96 Left 2
WINDOW 3 24 16 Left 2
WINDOW 123 0 0 Left 0
WINDOW 39 0 0 Left 0
SYMATTR InstName V2
SYMATTR Value 5
SYMBOL res 64 192 R0
SYMATTR InstName R1
SYMATTR Value 123k
SYMBOL cap 48 192 R90
WINDOW 0 0 32 VBottom 2
WINDOW 3 32 32 VTop 2
SYMATTR InstName C1
SYMATTR Value 2n
SYMBOL cap -64 240 R0
SYMATTR InstName C2
SYMATTR Value 22n
SYMBOL res -64 192 R90
WINDOW 0 0 56 VBottom 2
WINDOW 3 32 56 VTop 2
SYMATTR InstName R2
SYMATTR Value 6.4k
SYMBOL voltage -192 208 R0
WINDOW 123 24 124 Left 2
WINDOW 39 0 0 Left 0
SYMATTR InstName V3
SYMATTR Value ""
SYMATTR Value2 AC 1
SYMBOL res 256 -16 R90
WINDOW 0 0 56 VBottom 2
WINDOW 3 32 56 VTop 2
SYMATTR InstName R3
SYMATTR Value 51.2k
SYMBOL res 208 368 R90
WINDOW 0 0 56 VBottom 2
WINDOW 3 32 56 VTop 2
SYMATTR InstName R4
SYMATTR Value 2k
SYMBOL res 128 48 R90
WINDOW 0 0 56 VBottom 2
WINDOW 3 32 56 VTop 2
SYMATTR InstName R5
SYMATTR Value 123k
TEXT -224 440 Left 2 !.ac dec 1000 1 10k
